ieee33-dg-voltage-regulation/results/S4_SOP_Losses.csv
Element,  Total(W), Total(var),  I2R(W), I2X(var), No-load(W), No-load(var)
Transformer.SUBTRANS, 17607.6, 82495.95, 7217.927, 82495.95, 10389.67, -2.273737E-13
Line.L1, 2948.559, 1325.429, 2948.559, 1325.429, 0, 0
Line.L2, 12581.22, 6231.723, 12581.22, 6231.723, 0, 0
Line.L3, 3396.429, 1555.033, 3396.429, 1555.033, 0, 0
Line.L4, 2874.889, 1290.299, 2874.889, 1290.299, 0, 0
Line.L5, 5646.274, 4701.641, 5646.274, 4701.641, 0, 0
Line.L6, 63.8777, 39.78901, 63.8777, 39.78901, 0, 0
Line.L7, 605.2722, 28.48429, 605.2722, 28.48429, 0, 0
Line.L8, 2041.33, 1294.137, 2041.33, 1294.137, 0, 0
Line.L9, 2540.709, 1627.047, 2540.709, 1627.047, 0, 0
Line.L10, 172.3925, -117.665, 172.3925, -117.665, 0, 0
Line.L11, 414.9802, -37.69908, 414.9802, -37.69908, 0, 0
Line.L12, 2153.804, 1518.628, 2153.804, 1518.628, 0, 0
Line.L13, 1019.761, 1165.078, 1019.761, 1165.078, 0, 0
Line.L14, 1719.947, 1352.626, 1719.947, 1352.626, 0, 0
Line.L15, 2563.801, 1692.872, 2563.801, 1692.872, 0, 0
Line.L16, 5193.373, 6752.277, 5193.373, 6752.277, 0, 0
Line.L17, 3414.445, 2493.473, 3414.445, 2493.473, 0, 0
Line.L18, 18.23577, -159.9615, 18.23577, -159.9615, 0, 0
Line.L19, 45.04904, -136.6529, 45.04904, -136.6529, 0, 0
Line.L20, 26.81729, -145.8592, 26.81729, -145.8592, 0, 0
Line.L21, 154.41, 26.7885, 154.41, 26.7885, 0, 0
Line.L22, 1798.119, 1053.944, 1798.119, 1053.944, 0, 0
Line.L23, 2724.156, 1977.742, 2724.156, 1977.742, 0, 0
Line.L24, 322.6847, 80.26633, 322.6847, 80.26633, 0, 0
Line.L25, 1073.149, 375.3634, 1073.149, 375.3634, 0, 0
Line.L26, 1344.837, 513.8875, 1344.837, 513.8875, 0, 0
Line.L27, 4479.62, 3780.11, 4479.62, 3780.11, 0, 0
Line.L28, 3076.832, 2512.855, 3076.832, 2512.855, 0, 0
Line.L29, 1476.147, 585.3014, 1476.147, 585.3014, 0, 0
Line.L30, 52.99136, -113.9736, 52.99136, -113.9736, 0, 0
Line.L31, 96.2047, -54.30124, 96.2047, -54.30124, 0, 0
Line.L32, 429.8168, 501.569, 429.8168, 501.569, 0, 0
